Version 4
SHEET 1 1156 680
WIRE 128 -256 128 -272
WIRE 128 -160 128 -176
WIRE 128 -160 48 -160
WIRE 224 -160 128 -160
WIRE 608 -160 224 -160
WIRE 736 -160 608 -160
WIRE 48 -48 48 -160
WIRE 224 -48 224 -160
WIRE 608 -48 608 -160
WIRE 736 -48 736 -160
WIRE 224 80 224 32
WIRE 352 80 224 80
WIRE 528 80 416 80
WIRE 736 80 736 32
WIRE 848 80 736 80
WIRE 1040 80 912 80
WIRE 224 128 224 80
WIRE 736 128 736 80
WIRE 1040 128 1040 80
WIRE -128 176 -384 176
WIRE 48 176 48 32
WIRE 48 176 -64 176
WIRE 160 176 48 176
WIRE 528 176 528 80
WIRE 608 176 608 32
WIRE 608 176 528 176
WIRE 672 176 608 176
WIRE -384 256 -384 176
WIRE 224 272 224 224
WIRE 736 272 736 224
WIRE 48 304 48 176
WIRE 224 304 224 272
WIRE 608 304 608 176
WIRE 736 304 736 272
WIRE -384 416 -384 336
WIRE 48 416 48 384
WIRE 48 416 -384 416
WIRE 224 416 224 384
WIRE 224 416 48 416
WIRE 608 416 608 384
WIRE 608 416 224 416
WIRE 736 416 736 384
WIRE 736 416 608 416
WIRE 1040 416 1040 208
WIRE 1040 416 736 416
WIRE 48 448 48 416
FLAG 48 448 0
FLAG 128 -272 0
FLAG 224 80 Vc1
FLAG 224 272 Ve1
FLAG 48 176 Vb
FLAG 528 80 Vo1
FLAG -384 176 Vs
FLAG 736 80 Vc
FLAG 736 272 Ve
FLAG 1040 80 Vo
SYMBOL res 208 -64 R0
SYMATTR InstName Rc
SYMATTR Value 3.55k
SYMBOL res 208 288 R0
SYMATTR InstName Re
SYMATTR Value 10
SYMBOL res 32 288 R0
SYMATTR InstName R2
SYMATTR Value 1.8k
SYMBOL cap -64 160 R90
WINDOW 0 0 32 VBottom 2
WINDOW 3 32 32 VTop 2
SYMATTR InstName C2
SYMATTR Value 10µ
SYMBOL voltage -384 240 R0
SYMATTR InstName Vs
SYMATTR Value SINE(0 1m 1k)AC 1
SYMBOL voltage 128 -160 R180
WINDOW 0 24 96 Left 2
WINDOW 3 24 16 Left 2
SYMATTR InstName Vcc
SYMATTR Value 9
SYMBOL res 32 -64 R0
SYMATTR InstName R1
SYMATTR Value 19.39k
SYMBOL 2N2222 160 128 R0
SYMATTR InstName Q1
SYMATTR Value 2N2222
SYMBOL res 720 -64 R0
SYMATTR InstName Rc1
SYMATTR Value 3.55k
SYMBOL res 720 288 R0
SYMATTR InstName Re1
SYMATTR Value 10
SYMBOL res 1024 112 R0
SYMATTR InstName RL1
SYMATTR Value 50
SYMBOL 2N2222 672 128 R0
SYMATTR InstName Q2
SYMATTR Value 2N2222
SYMBOL cap 912 64 R90
WINDOW 0 0 32 VBottom 2
WINDOW 3 32 32 VTop 2
SYMATTR InstName C3
SYMATTR Value 100µ
SYMBOL res 592 -64 R0
SYMATTR InstName R3
SYMATTR Value 6.28k
SYMBOL res 592 288 R0
SYMATTR InstName R4
SYMATTR Value 550
SYMBOL cap 416 64 R90
WINDOW 0 0 32 VBottom 2
WINDOW 3 32 32 VTop 2
SYMATTR InstName C1
SYMATTR Value 10µ
TEXT 840 -184 Left 2 !*.step param r1 10 10K 0.5K\n*.step param r2 10 10K 0.5K\n.ac dec 10 1 100G\n*.op\n*.tran 7m
TEXT -376 -432 Left 2 ;Gain = 21.69dB\n3dB Bandwidth = 948.51 KHz\nLoad Resistance = 50 ohm\nPower Dissipation = 60mW
TEXT -376 -560 Left 2 ;the trade off is between RL and gain.\nAlso, to reduce power dissipation, Vcc has to be reduced.\nPower will be reduced to 26mW if Vcc is reduced by just 1 volt.
TEXT -368 -224 Left 2 ;Add Trace : Vo/Vs
